Version 4
SHEET 1 880 680
WIRE 80 0 -144 0
WIRE 576 0 368 0
WIRE 80 32 80 0
WIRE 80 144 80 112
WIRE 160 144 80 144
WIRE 80 160 80 144
WIRE 368 160 368 0
WIRE -144 224 -144 0
WIRE 576 224 576 0
WIRE 80 240 80 208
WIRE 160 240 160 144
WIRE 160 240 128 240
WIRE 320 240 160 240
WIRE 368 240 368 208
WIRE 368 336 368 256
WIRE 400 336 368 336
WIRE 80 352 80 256
WIRE 160 352 80 352
WIRE 80 368 80 352
WIRE 368 368 368 336
WIRE 160 416 160 352
WIRE 192 416 160 416
WIRE 80 448 80 416
WIRE 160 448 160 416
WIRE 160 448 128 448
WIRE 320 448 160 448
WIRE 368 448 368 416
WIRE -144 496 -144 304
WIRE 80 496 80 464
WIRE 80 496 -144 496
WIRE 224 496 80 496
WIRE 368 496 368 464
WIRE 368 496 224 496
WIRE 576 496 576 304
WIRE 576 496 368 496
WIRE 224 512 224 496
FLAG 400 336 Iout
IOPIN 400 336 Out
FLAG 192 416 VG2
IOPIN 192 416 Out
FLAG 224 512 0
SYMBOL current 80 32 R0
SYMATTR InstName Iref
SYMATTR Value 43µ
SYMBOL voltage -144 208 R0
WINDOW 123 0 0 Left 0
WINDOW 39 0 0 Left 0
SYMATTR InstName VDD
SYMATTR Value 2.4
SYMBOL voltage 576 208 R0
WINDOW 123 0 0 Left 0
WINDOW 39 0 0 Left 0
SYMATTR InstName VDS
SYMATTR Value 2.4
SYMBOL nmos4 320 160 R0
SYMATTR InstName M3
SYMATTR Value CMOSN
SYMATTR Value2 l=50m w=50m
SYMBOL nmos4 320 368 R0
SYMATTR InstName M2
SYMATTR Value CMOSN
SYMATTR Value2 l=50m w=50m
SYMBOL nmos4 128 160 M0
SYMATTR InstName M4
SYMATTR Value CMOSN
SYMATTR Value2 l=50m w=50m
SYMBOL nmos4 128 368 M0
SYMATTR InstName M1
SYMATTR Value CMOSN
SYMATTR Value2 l=50m w=50m
TEXT -144 544 Left 2 !.include tsmc018.lib.txt
TEXT -144 568 Left 2 !.dc VDS 0 2.4 0.01
